Using: /usr/bin/time -p /usr/ece/synopsys/hspice_vD-2010.03-SP1/hspice/linux/hspice fullamp.sp
 ****** HSPICE -- D-2010.03-SP1 32-BIT (May 27 2010) linux ******               
  Copyright (C) 2010 Synopsys, Inc. All Rights Reserved.                        
  Unpublished-rights reserved under US copyright laws.
  This program is protected by law and is subject to the 
  terms and conditions of the license agreement from Synopsys.
  Use of this program is your acceptance to be bound by the 
  license agreement. HSPICE is the trademark of Synopsys, Inc.
  Input File: fullamp.sp                                                        
 lic:  
 lic: FLEXlm: v8.5b 
 lic: USER:   taktas               HOSTNAME: mnemosyne 
 lic: HOSTID: d4ae527c435f         PID:      27912 
 lic: Using FLEXlm license file: 
 lic: 5280@lm8.seas.rochester.edu 
 lic: Checkout 1 hspice 
 lic: License/Maintenance for hspice will expire on 19-apr-2020/2018.09 
 lic: FLOATING license(s) on SERVER lm8.seas.rochester.edu 
 lic:   
 Init: read install configuration file: /usr/ece/synopsys/hspice_vD-2010.03-SP1/hspice/meta.cfg
 **error** (fullamp.sp:55) unable to open file "sedra_mod_lib" .Either file doesn't exists or path is wrong. Please enter the correct file location. 

               ***** job aborted
 lic: Release hspice token(s) 
