Using: /usr/bin/time -p /usr/ece/synopsys/hspice_vD-2010.03-SP1/hspice/linux/hspice fullamp.sp
 ****** HSPICE -- D-2010.03-SP1 32-BIT (May 27 2010) linux ******               
  Copyright (C) 2010 Synopsys, Inc. All Rights Reserved.                        
  Unpublished-rights reserved under US copyright laws.
  This program is protected by law and is subject to the 
  terms and conditions of the license agreement from Synopsys.
  Use of this program is your acceptance to be bound by the 
  license agreement. HSPICE is the trademark of Synopsys, Inc.
  Input File: fullamp.sp                                                        
 lic:  
 lic: FLEXlm: v8.5b 
 lic: USER:   taktas               HOSTNAME: mnemosyne 
 lic: HOSTID: d4ae527c435f         PID:      3456 
 lic: Using FLEXlm license file: 
 lic: 5280@lm8.seas.rochester.edu 
 lic: Checkout 1 hspice 
 lic: License/Maintenance for hspice will expire on 19-apr-2020/2018.09 
 lic: FLOATING license(s) on SERVER lm8.seas.rochester.edu 
 lic:   
 Init: read install configuration file: /usr/ece/synopsys/hspice_vD-2010.03-SP1/hspice/meta.cfg
 **error** (error:1)syntax error at or before  0

Syntax reference: 
Syntax
Passive and active device model syntax
.MODEL mname type [level=num]
+ [pname1=val1 pname2=val2 ...]
See specific element type for supported model parameter information.
Optimization model syntax
.MODEL mname OPT [METHOD][close=num] [max] [cut=num]
+ [difsiz=num] [grad=num] [parmin=num] [relin=num]
+ [relout=num] [itrop=num] [DYNACC=0|1]
The following syntax is used for a Monte Carlo analysis:
.MODEL mname ModelType ([level=val]
+ [keyword1=val1][keyword2=val2]
+ [keyword3=val3][lot/n /distribution value]
+ [DEV/n /distribution value]...)
.model mname mosra
+ level|mosralevel value
+ [relmodelparam]



               ***** job aborted
 lic: Release hspice token(s) 
